TITL B-gamma 0.0036 194.597810 -2.32031388E+003 0 0  28 (Pnnm) n - 1
REM
REM Run started: Sat, 24 Sep 2022 18:11:19 +0100 in /home/bonan/appdir/jdev/CellTools-project/EDDP.jl/examples/new-test/search-28b-fixed/ref
REM CASTEP 20.11| from code version 26f4f9473+ Castep201_branch Mon Apr 26 22:54:58 2021 +0100
REM Functional Perdew Burke Ernzerhof Relativity Koelling-Harmon Dispersion off
REM Cut-off 340.0000 eV Grid scale 1.7500 Gmax 16.5316 1/A FBSC none
REM MP grid 4 4 3 Offset 0.000 0.000 0.000 No. kpts 8 Spacing 0.05
REM Total runtime: 77.12 s
REM Overall efficiency: 89.6667 %
REM
REM
REM ## AIRSS Version 0.9.3 July 2022 commit v0.9.3-8-ga1e635fa32177e30cc
REM
REM
REM COMMAND_LINE
REM
REM
REM B 2|1.4|7|7|9|20:21(qc=5)
REM 
CELL 1.54180    5.03191    5.60299    6.90215   90.00000   90.00000   90.00000
LATT -1
SFAC B  
B      1  0.6525180883796  0.9073687857802  0.2907097903265 1.0
B      1  0.3474819116204  0.0926312142198  0.2907097903265 1.0
B      1  0.1525180883796  0.5926312142198  0.2092902096734 1.0
B      1  0.8474819116204  0.4073687857802  0.2092902096734 1.0
B      1  0.3474819116204  0.0926312142198  0.7092902096735 1.0
B      1  0.6525180883796  0.9073687857802  0.7092902096735 1.0
B      1  0.8474819116204  0.4073687857802  0.7907097903265 1.0
B      1  0.1525180883796  0.5926312142198  0.7907097903265 1.0
B      1  0.1477624842437  0.7714422537900  0.0000000000000 1.0
B      1  0.8522375157563  0.2285577462100  0.0000000000000 1.0
B      1  0.6477624842437  0.7285577462100  0.5000000000000 1.0
B      1  0.3522375157563  0.2714422537900  0.5000000000000 1.0
B      1  0.8356422109368  0.9915649958275  0.5000000000000 1.0
B      1  0.1643577890632  0.0084350041725  0.5000000000000 1.0
B      1  0.3356422109368  0.5084350041725  0.0000000000000 1.0
B      1  0.6643577890632  0.4915649958275  0.0000000000000 1.0
B      1  0.3390393195908  0.7813659806862  0.3743152979041 1.0
B      1  0.6609606804092  0.2186340193138  0.3743152979041 1.0
B      1  0.8390393195908  0.7186340193138  0.1256847020959 1.0
B      1  0.1609606804092  0.2813659806862  0.1256847020959 1.0
B      1  0.6609606804092  0.2186340193138  0.6256847020959 1.0
B      1  0.3390393195908  0.7813659806862  0.6256847020959 1.0
B      1  0.1609606804092  0.2813659806862  0.8743152979041 1.0
B      1  0.8390393195908  0.7186340193138  0.8743152979041 1.0
B      1  0.1701856072249  0.5206472257759  0.5000000000000 1.0
B      1  0.8298143927751  0.4793527742241  0.5000000000000 1.0
B      1  0.6701856072249  0.9793527742241  0.0000000000000 1.0
B      1  0.3298143927751  0.0206472257759  0.0000000000000 1.0
END
